#RADIOSS STARTER
# Elastic tetra benchmark; formulation equivalence requires validation
/BEGIN
elastic_tetra
      2022         0
                  kg                  mm                   s
                  kg                  mm                   s
/MAT/LAW1/1
MAT1_1
  7.800000000000E-06
  2.100000000000E+08  3.000000000000E-01
/PROP/SOLID/1
PSOLID_1
         0         0                   0                   0         0         0                   0
  0.000000000000E+00  0.000000000000E+00  0.000000000000E+00  0.000000000000E+00  0.000000000000E+00
  0.000000000000E+00         0         0
/PART/1
PART_1
         1         1         0
/NODE
         1  0.000000000000E+00  0.000000000000E+00  0.000000000000E+00
         2  1.000000000000E+01  0.000000000000E+00  0.000000000000E+00
         3  0.000000000000E+00  1.000000000000E+01  0.000000000000E+00
         4  0.000000000000E+00  0.000000000000E+00  1.000000000000E+01
/TETRA4/1
         1         1         2         3         4
/END
