#RADIOSS STARTER
#--------------------------------------------------------------------------------------------------|
# <02_MAT1_PSOLID_CHEXA8> ("Model")
# Copyright (C) 2026 SISW Siemens Industry Software Inc. ("Holder")
# Model is licensed by Holder under CC BY-NC 4.0
# (<https://creativecommons.org/licenses/by-nc/4.0/legalcode).>
#
#
#  This model was developed for kinematic assessment only. It should not be used for the evaluation
#  of injury metrics
#
#--------------------------------------------------------------------------------------------------|
#
#---1----|----2----|----3----|----4----|----5----|----6----|----7----|----8----|----9----|---10----|
/BEGIN
02_MAT1_PSOLID_CHEXA8
      2023         0
                  kg                  mm                  ms
                  kg                  mm                  ms
#---1----|----2----|----3----|----4----|----5----|----6----|----7----|----8----|----9----|---10----|
#-  1. CONTROL CARDS:
#---1----|----2----|----3----|----4----|----5----|----6----|----7----|----8----|----9----|---10----|
/TITLE
02_MAT1_PSOLID_CHEXA8 Converted from Nastran BDF
#---1----|----2----|----3----|----4----|----5----|----6----|----7----|----8----|----9----|---10----|
#-  2. MATERIALS:
#---1----|----2----|----3----|----4----|----5----|----6----|----7----|----8----|----9----|---10----|
/NODE
         1  0.000000000000E+00  0.000000000000E+00  0.000000000000E+00
         2  1.000000000000E+00  0.000000000000E+00  0.000000000000E+00
         3  1.000000000000E+00  1.000000000000E+00  0.000000000000E+00
         4  0.000000000000E+00  1.000000000000E+00  0.000000000000E+00
         5  0.000000000000E+00  0.000000000000E+00  1.000000000000E+00
         6  1.000000000000E+00  0.000000000000E+00  1.000000000000E+00
         7  1.000000000000E+00  1.000000000000E+00  1.000000000000E+00
         8  0.000000000000E+00  1.000000000000E+00  1.000000000000E+00
/MAT/LAW1/1
MAT1_1
#              RHO_I
  1.000000000000E-06
#                  E                  Nu
  3.000000000000E+06  3.000000000000E-01
/PROP/SOLID/1
PSOLID_1
#   Isolid    Ismstr     Iale    Icpre Itetra10     Inpts  Itetra4    Iframe        dn
         2         2         0         0         0         0         0         2  0.000000000000E+00
#                q_a                 q_b                   h            LAMBDA_V                MU_V
  0.000000000000E+00  0.000000000000E+00  0.000000000000E+00  0.000000000000E+00  0.000000000000E+00
#             dt_min                Vdef_min                Vdef_max                 APS_max                COL_min
  0.000000000000E+00  0.000000000000E+00  0.000000000000E+00  0.000000000000E+00  0.000000000000E+00
#       Ndir   sphpart_ID  Icontrol
         0         0         0
/END
