#RADIOSS STARTER
#--------------------------------------------------------------------------------------------------|
# <03_CHEXA20> ("Model")
# Copyright (C) 2026 SISW Siemens Industry Software Inc. ("Holder")
# Model is licensed by Holder under CC BY-NC 4.0
# (<https://creativecommons.org/licenses/by-nc/4.0/legalcode).>
#
#
#  This model was developed for kinematic assessment only. It should not be used for the evaluation
#  of injury metrics
#
#--------------------------------------------------------------------------------------------------|
#
#---1----|----2----|----3----|----4----|----5----|----6----|----7----|----8----|----9----|---10----|
/BEGIN
03_CHEXA20
      2023         0
                  kg                  mm                  ms
                  kg                  mm                  ms
#---1----|----2----|----3----|----4----|----5----|----6----|----7----|----8----|----9----|---10----|
#-  1. CONTROL CARDS:
#---1----|----2----|----3----|----4----|----5----|----6----|----7----|----8----|----9----|---10----|
/TITLE
03_CHEXA20 Converted from Nastran BDF
#---1----|----2----|----3----|----4----|----5----|----6----|----7----|----8----|----9----|---10----|
#-  2. MATERIALS:
#---1----|----2----|----3----|----4----|----5----|----6----|----7----|----8----|----9----|---10----|
/NODE
         1  0.000000000000E+00  0.000000000000E+00  0.000000000000E+00
         2  1.000000000000E+01  0.000000000000E+00  0.000000000000E+00
         3  1.000000000000E+01  1.000000000000E+01  0.000000000000E+00
         4  0.000000000000E+00  1.000000000000E+01  0.000000000000E+00
         5  0.000000000000E+00  0.000000000000E+00  1.000000000000E+01
         6  1.000000000000E+01  0.000000000000E+00  1.000000000000E+01
         7  1.000000000000E+01  1.000000000000E+01  1.000000000000E+01
         8  0.000000000000E+00  1.000000000000E+01  1.000000000000E+01
         9  5.000000000000E+00  0.000000000000E+00  0.000000000000E+00
        10  1.000000000000E+01  5.000000000000E+00  0.000000000000E+00
        11  5.000000000000E+00  1.000000000000E+01  0.000000000000E+00
        12  0.000000000000E+00  5.000000000000E+00  0.000000000000E+00
        13  5.000000000000E+00  0.000000000000E+00  1.000000000000E+01
        14  1.000000000000E+01  5.000000000000E+00  1.000000000000E+01
        15  5.000000000000E+00  1.000000000000E+01  1.000000000000E+01
        16  0.000000000000E+00  5.000000000000E+00  1.000000000000E+01
        17  0.000000000000E+00  0.000000000000E+00  5.000000000000E+00
        18  1.000000000000E+01  0.000000000000E+00  5.000000000000E+00
        19  1.000000000000E+01  1.000000000000E+01  5.000000000000E+00
        20  0.000000000000E+00  1.000000000000E+01  5.000000000000E+00
/MAT/LAW1/1
MAT1_1
#              RHO_I
  1.000000000000E-06
#                  E                  Nu
  3.000000000000E+06  3.000000000000E-01
/PROP/SOLID/1
PSOLID_1
#   Isolid    Ismstr     Iale    Icpre Itetra10     Inpts  Itetra4    Iframe        dn
         2         2         0         0         0         0         0         2  0.000000000000E+00
#                q_a                 q_b                   h            LAMBDA_V                MU_V
  0.000000000000E+00  0.000000000000E+00  0.000000000000E+00  0.000000000000E+00  0.000000000000E+00
#             dt_min                Vdef_min                Vdef_max                 APS_max                COL_min
  0.000000000000E+00  0.000000000000E+00  0.000000000000E+00  0.000000000000E+00  0.000000000000E+00
#       Ndir   sphpart_ID  Icontrol
         0         0         0
/PART/1
BDF_PART_1_BRICK
         1         1         0         0
/BRICK/1
/BRIC20/1
         1         1         2         3         4         5         6         7         8
/GRNOD/NODE/400000/0
SPC_111111
         1         2         3         4
/BCS/400000
SPC_111111
    111111         0    400000
/END
