#RADIOSS STARTER
#--------------------------------------------------------------------------------------------------|
# <10_RBE2> ("Model")
# Copyright (C) 2026 SISW Siemens Industry Software Inc. ("Holder")
# Model is licensed by Holder under CC BY-NC 4.0
# (<https://creativecommons.org/licenses/by-nc/4.0/legalcode).>
#
#
#  This model was developed for kinematic assessment only. It should not be used for the evaluation
#  of injury metrics
#
#--------------------------------------------------------------------------------------------------|
#
#---1----|----2----|----3----|----4----|----5----|----6----|----7----|----8----|----9----|---10----|
/BEGIN
10_RBE2
      2023         0
                  kg                  mm                  ms
                  kg                  mm                  ms
#---1----|----2----|----3----|----4----|----5----|----6----|----7----|----8----|----9----|---10----|
#-  1. CONTROL CARDS:
#---1----|----2----|----3----|----4----|----5----|----6----|----7----|----8----|----9----|---10----|
/TITLE
10_RBE2 Converted from Nastran BDF
#---1----|----2----|----3----|----4----|----5----|----6----|----7----|----8----|----9----|---10----|
#-  2. MATERIALS:
#---1----|----2----|----3----|----4----|----5----|----6----|----7----|----8----|----9----|---10----|
/NODE
         1  0.000000000000E+00  0.000000000000E+00  0.000000000000E+00
         2  1.000000000000E+00  0.000000000000E+00  0.000000000000E+00
         3  0.000000000000E+00  1.000000000000E+00  0.000000000000E+00
         4  0.000000000000E+00  0.000000000000E+00  1.000000000000E+00
      9001  0.000000000000E+00  0.000000000000E+00  0.000000000000E+00
      9002  1.000000000000E+01  0.000000000000E+00  0.000000000000E+00
      9003  1.000000000000E+01  1.000000000000E+01  0.000000000000E+00
      9004  0.000000000000E+00  1.000000000000E+01  0.000000000000E+00
      9005  0.000000000000E+00  0.000000000000E+00  1.000000000000E+01
      9006  1.000000000000E+01  0.000000000000E+00  1.000000000000E+01
      9007  1.000000000000E+01  1.000000000000E+01  1.000000000000E+01
      9008  0.000000000000E+00  1.000000000000E+01  1.000000000000E+01
/MAT/LAW1/9001
MAT1_9001
#              RHO_I
  1.000000000000E-06
#                  E                  Nu
  3.000000000000E+06  3.000000000000E-01
/PROP/SOLID/9001
PSOLID_9001
#   Isolid    Ismstr     Iale    Icpre Itetra10     Inpts  Itetra4    Iframe        dn
         2         2         0         0         0         0         0         2  0.000000000000E+00
#                q_a                 q_b                   h            LAMBDA_V                MU_V
  0.000000000000E+00  0.000000000000E+00  0.000000000000E+00  0.000000000000E+00  0.000000000000E+00
#             dt_min                Vdef_min                Vdef_max                 APS_max                COL_min
  0.000000000000E+00  0.000000000000E+00  0.000000000000E+00  0.000000000000E+00  0.000000000000E+00
#       Ndir   sphpart_ID  Icontrol
         0         0         0
/GRNOD/NODE/400000/0
SPC_111111
      9001      9002      9003      9004
/BCS/400000
SPC_111111
    111111         0    400000
/GRNOD/NODE/420000/0
RBE2_100_DEPENDENT
         2         3         4
/RBE2/100
RBE2_100
         1    111111         0    420000         0
/END
